<?xml version="1.0" encoding="UTF-8"?>

<!-- generated on 2022-09-01 15:36:17 by Eclipse SUMO polyconvert Version v1_13_0+1451-11b6e706080
<configuration xmlns:xsi="http://www.w3.org/2001/XMLSchema-instance" xsi:noNamespaceSchemaLocation="http://sumo.dlr.de/xsd/polyconvertConfiguration.xsd">

    <input>
        <net-file value="osm.net.xml"/>
        <osm-files value="osm_bbox.osm.xml.gz"/>
        <osm.keep-full-type value="true"/>
        <type-file value="/opt/venv/lib/python3.9/site-packages/sumo/data/typemap/osmPolyconvert.typ.xml"/>
    </input>

    <output>
        <output-file value="osm.poly.xml"/>
    </output>

    <report>
        <verbose value="true"/>
    </report>

</configuration>
-->

<additional xmlns:xsi="http://www.w3.org/2001/XMLSchema-instance" xsi:noNamespaceSchemaLocation="http://sumo.dlr.de/xsd/additional_file.xsd">
    <location netOffset="-512052.41,-5393459.75" convBoundary="-2103.52,-129.86,11717.07,3751.78" origBoundary="9.135277,48.692556,9.322992,48.727750" projParameter="+proj=utm +zone=32 +ellps=WGS84 +datum=WGS84 +units=m +no_defs"/>

    <poly id="1013165941" type="man_made.works" color="255,230,230" fill="1" layer="-1.00" shape="4253.537155,3257.799691 4404.985646,3240.389749 4409.441615,3233.221845 4410.061889,3224.864379 4415.215725,3147.867360 4415.859979,3131.350769 4424.996626,3130.721762 4426.164295,3103.790952 4425.674541,3095.252370 4420.591935,3090.357481 4415.800850,3088.876086 4413.039117,3077.585164 4358.647960,3095.544910 4327.351412,3108.548133 4322.136174,3111.267454 4323.799791,3141.007802 4255.467352,3216.220078 4254.420622,3252.433197 4253.537155,3257.799691"/>
    <poly id="1047281299" type="amenity.car_sharing" color="237,199,199" fill="1" layer="-1.00" shape="2840.566868,1828.724849 2839.812081,1833.158143 2844.363775,1833.926119 2845.118565,1829.492826 2840.566868,1828.724849"/>
    <poly id="1056235310" type="building.service" color="255,230,230" fill="1" layer="-1.00" shape="3121.971308,2220.441245 3120.034076,2215.956239 3126.515005,2213.161415 3128.459619,2217.635328 3121.971308,2220.441245"/>
    <poly id="1059905798" type="building.school" color="255,230,230" fill="1" layer="-1.00" shape="3446.220975,1405.499493 3443.340189,1409.660047 3404.942456,1383.220246 3410.076162,1375.797767 3421.667288,1363.846643 3458.283379,1388.080658 3456.614000,1390.488221 3446.220975,1405.499493"/>
    <poly id="1060119887" type="building.greenhouse" color="255,230,230" fill="1" layer="-1.00" shape="2493.781313,1866.665415 2487.008714,1865.591834 2495.383745,1813.268158 2535.460719,1819.652793 2527.085322,1871.976410 2524.996945,1871.637501 2493.781313,1866.665415"/>
    <poly id="1060119888" type="building.yes" color="255,230,230" fill="1" layer="-1.00" shape="2541.969776,1905.074194 2550.713093,1906.441989 2553.607998,1888.030260 2544.857296,1886.662442 2541.969776,1905.074194"/>
    <poly id="1060119889" type="building.yes" color="255,230,230" fill="1" layer="-1.00" shape="2484.213665,1885.293314 2486.890587,1868.592856 2493.310186,1869.621058 2493.781313,1866.665415 2524.996945,1871.637501 2524.510829,1874.693147 2526.415380,1874.998229 2523.715841,1891.865350 2515.163763,1890.498094 2516.165754,1884.253487 2505.414941,1882.547055 2504.457792,1888.524996 2484.213665,1885.293314"/>
    <poly id="1060347031" type="landuse.construction" color="194,194,130" fill="1" layer="-3.00" shape="2346.179679,2631.690424 2371.534723,2648.663081 2383.799033,2627.629735 2358.600925,2612.536038 2346.179679,2631.690424"/>
    <poly id="1062294762" type="landuse.construction" color="194,194,130" fill="1" layer="-3.00" shape="3558.767597,774.654596 3549.058170,728.540567 3527.952736,732.105751 3535.314656,778.391078 3558.767597,774.654596"/>
    <poly id="1067918788" type="waterway.stream" color="181,209,209" fill="0" layer="-4.00" shape="3286.010256,1709.983105 3299.319808,1714.932800"/>
    <poly id="1067918789" type="waterway.stream" color="181,209,209" fill="0" layer="-4.00" shape="3281.087734,1707.601933 3286.010256,1709.983105"/>
    <poly id="1067918790" type="waterway.stream" color="181,209,209" fill="0" layer="-4.00" shape="3277.486044,1706.458253 3281.087734,1707.601933"/>
    <poly id="1069576639" type="landuse.commercial" color="209,209,204" fill="1" layer="-3.00" shape="4196.232751,551.753758 4185.972750,550.090005 4172.953855,548.262669 4172.440300,527.374175 4172.833708,500.741320 4176.316519,479.586482 4183.118479,448.092231 4193.026716,418.819068 4199.475484,410.245054 4225.548862,409.453569 4218.401032,448.472313 4207.189847,505.831849 4196.232751,551.753758"/>
    <poly id="1069576640" type="landuse.commercial" color="209,209,204" fill="1" layer="-3.00" shape="3984.441003,551.088953 3971.462627,511.856786 3958.814758,516.622808 3954.314192,518.244025 3952.356476,515.804033 3918.402553,521.876694 3917.670429,533.501968 3906.670436,535.849505 3912.395339,561.666074 3906.422010,563.694432 3908.769728,581.653485 3965.425485,564.573960 3984.441003,551.088953"/>
    <poly id="107161094" type="building.industrial" color="255,230,230" fill="1" layer="-1.00" shape="4380.509846,3260.171271 4368.207163,3259.557192 4367.184390,3279.807684 4371.449502,3280.020265 4371.113782,3286.666694 4379.151299,3287.068188 4379.432517,3281.455395 4380.376965,3262.849855 4380.509846,3260.171271"/>
    <poly id="1077527113" type="landuse.farmland" color="194,194,130" fill="1" layer="-3.00" shape="3457.884448,1545.682675 3437.049781,1540.244951 3445.352270,1525.550251 3461.278889,1539.322572 3457.884448,1545.682675"/>
    <poly id="1077527114" type="landuse.farmland" color="194,194,130" fill="1" layer="-3.00" shape="3469.927885,1545.660404 3469.988857,1542.236834 3472.630148,1542.188562 3472.510012,1545.723129 3469.927885,1545.660404"/>
    <poly id="1077527115" type="landuse.farmland" color="194,194,130" fill="1" layer="-3.00" shape="3459.972356,1535.572856 3456.965477,1532.140804 3458.714297,1530.255913 3461.505642,1534.476608 3459.972356,1535.572856"/>
    <poly id="1077602280" type="landuse.farmland" color="194,194,130" fill="1" layer="-3.00" shape="3465.692993,1531.375700 3475.203239,1529.567868 3472.147055,1512.051656 3458.651837,1515.593691 3465.692993,1531.375700"/>
    <poly id="1077780781" type="landuse.farmland" color="194,194,130" fill="1" layer="-3.00" shape="3421.837148,1590.336286 3425.578576,1588.845943 3423.609918,1579.758711 3419.474555,1580.036321 3421.837148,1590.336286"/>
    <poly id="1077780782" type="landuse.farmland" color="194,194,130" fill="1" layer="-3.00" shape="3426.784673,1589.004895 3424.690275,1580.161868 3431.246880,1579.590811 3433.051288,1586.876794 3426.784673,1589.004895"/>
    <poly id="1077852464" type="landuse.farmland" color="194,194,130" fill="1" layer="-3.00" shape="3453.290679,1528.139990 3449.813623,1524.462089 3452.527555,1522.090758 3455.488027,1526.345266 3453.290679,1528.139990"/>
    <poly id="1077852465" type="landuse.farmland" color="194,194,130" fill="1" layer="-3.00" shape="3462.052915,1533.444330 3464.382688,1531.649976 3461.562828,1524.438987 3457.936631,1526.807792 3462.052915,1533.444330"/>
    <poly id="1077852466" type="landuse.farmland" color="194,194,130" fill="1" layer="-3.00" shape="3466.561865,1536.424783 3466.122901,1532.877553 3470.509606,1532.178263 3471.146867,1535.848318 3466.561865,1536.424783"/>
    <poly id="1077853423" type="landuse.farmland" color="194,194,130" fill="1" layer="-3.00" shape="3466.094038,1556.610208 3464.597620,1562.997789 3448.718678,1561.286486 3449.322189,1555.874645 3450.916704,1551.254781 3466.094038,1556.610208"/>
    <poly id="1077853424" type="landuse.farmland" color="194,194,130" fill="1" layer="-3.00" shape="3450.524038,1549.586290 3445.600614,1547.505105 3442.920829,1553.500361 3448.043162,1555.482050 3450.524038,1549.586290"/>
    <poly id="1077853425" type="landuse.farmland" color="194,194,130" fill="1" layer="-3.00" shape="3447.548621,1556.069833 3446.749209,1560.491806 3442.996635,1560.681529 3444.099335,1555.660127 3447.548621,1556.069833"/>
    <poly id="1077905063" type="landuse.farmland" color="194,194,130" fill="1" layer="-3.00" shape="3431.215587,1564.272829 3435.997036,1559.150419 3428.062507,1549.835514 3421.592983,1556.164922 3431.215587,1564.272829"/>
    <poly id="1077905064" type="landuse.farmland" color="194,194,130" fill="1" layer="-3.00" shape="3430.366662,1578.643519 3422.716212,1578.366741 3422.384571,1575.909183 3424.534079,1567.444694 3426.670741,1563.637789 3433.788132,1567.803712 3430.366662,1578.643519"/>
    <poly id="1077905065" type="landuse.farmland" color="194,194,130" fill="1" layer="-3.00" shape="3425.392971,1562.789445 3423.854579,1565.742066 3421.545306,1573.450224 3421.275673,1577.851430 3413.800163,1578.164297 3413.394455,1570.548695 3416.818105,1561.576378 3418.693747,1559.047095 3425.392971,1562.789445"/>
    <poly id="1077905066" type="landuse.farmland" color="194,194,130" fill="1" layer="-3.00" shape="3450.841459,1575.821010 3452.642085,1571.157251 3444.246946,1566.142955 3441.844124,1573.083841 3450.841459,1575.821010"/>
    <poly id="1077905067" type="landuse.farmland" color="194,194,130" fill="1" layer="-3.00" shape="3418.387791,1579.288550 3419.553333,1586.150358 3421.743807,1592.170174 3411.112932,1597.554370 3406.473982,1585.691892 3406.486602,1581.112121 3418.387791,1579.288550"/>
    <poly id="1077905068" type="landuse.farmland" color="194,194,130" fill="1" layer="-3.00" shape="3440.126694,1579.593094 3440.903966,1575.193291 3448.036858,1576.402410 3447.519405,1579.958111 3440.126694,1579.593094"/>
    <poly id="1077906950" type="landuse.farmland" color="194,194,130" fill="1" layer="-3.00" shape="3428.119297,1590.575938 3431.080242,1594.652579 3425.210627,1599.549669 3421.488768,1593.948037 3428.119297,1590.575938"/>
    <poly id="1077906951" type="landuse.farmland" color="194,194,130" fill="1" layer="-3.00" shape="3444.093169,1589.853034 3447.213237,1597.576181 3442.454414,1599.841823 3438.909485,1591.450542 3444.093169,1589.853034"/>
    <poly id="1077906952" type="landuse.farmland" color="194,194,130" fill="1" layer="-3.00" shape="3447.900004,1596.644332 3445.362621,1591.045956 3453.015312,1587.843452 3455.555731,1592.341352 3447.900004,1596.644332"/>
    <poly id="1077906953" type="landuse.farmland" color="194,194,130" fill="1" layer="-3.00" shape="3449.961014,1588.268536 3449.635253,1583.687829 3444.109074,1584.094971 3444.860156,1589.177074 3449.961014,1588.268536"/>
    <poly id="1077918342" type="landuse.farmland" color="194,194,130" fill="1" layer="-3.00" shape="3456.775526,1579.561283 3458.659172,1574.141866 3454.677823,1571.929884 3452.703348,1578.271683 3456.775526,1579.561283"/>
    <poly id="1077918343" type="landuse.farmland" color="194,194,130" fill="1" layer="-3.00" shape="3463.171670,1570.508285 3471.760883,1569.187006 3474.270035,1582.321987 3465.431168,1583.475831 3463.171670,1570.508285"/>
    <poly id="1077918344" type="landuse.farmland" color="194,194,130" fill="1" layer="-3.00" shape="3468.820202,1587.042338 3473.751889,1586.122237 3474.672828,1590.960262 3470.079562,1591.881298 3468.820202,1587.042338"/>
    <poly id="1077918345" type="landuse.farmland" color="194,194,130" fill="1" layer="-3.00" shape="3466.841235,1597.663793 3463.466058,1594.408575 3455.537448,1598.955342 3461.376412,1605.152002 3466.841235,1597.663793"/>
    <poly id="1077918346" type="landuse.farmland" color="194,194,130" fill="1" layer="-3.00" shape="3467.176698,1598.731860 3460.947482,1608.619019 3470.022169,1612.623662 3472.775607,1601.281808 3467.176698,1598.731860"/>
    <poly id="1077918347" type="landuse.farmland" color="194,194,130" fill="1" layer="-3.00" shape="3457.461046,1608.353710 3459.505438,1605.991647 3456.460552,1603.015247 3454.245294,1605.977105 3457.461046,1608.353710"/>
    <poly id="1077918348" type="landuse.farmland" color="194,194,130" fill="1" layer="-3.00" shape="3450.144751,1583.011159 3449.811710,1581.064933 3453.718919,1580.820062 3453.883211,1582.599082 3450.144751,1583.011159"/>
    <poly id="1077918349" type="landuse.farmland" color="194,194,130" fill="1" layer="-3.00" shape="3458.136795,1579.476118 3460.771264,1579.227734 3460.930390,1582.874234 3458.295461,1583.289357 3458.136795,1579.476118"/>
    <poly id="1077918350" type="landuse.farmland" color="194,194,130" fill="1" layer="-3.00" shape="3453.541507,1583.787553 3456.425648,1583.706597 3457.607381,1587.355924 3454.117890,1588.191096 3453.541507,1583.787553"/>
    <poly id="1077918351" type="landuse.farmland" color="194,194,130" fill="1" layer="-3.00" shape="3476.700618,1594.600818 3477.456808,1597.826562 3479.325911,1597.664996 3478.143239,1594.360259 3476.700618,1594.600818"/>
    <poly id="1077918352" type="landuse.farmland" color="194,194,130" fill="1" layer="-3.00" shape="3468.739595,1616.177245 3466.328192,1628.876203 3458.177445,1625.974608 3462.288475,1613.202534 3468.739595,1616.177245"/>
    <poly id="1077921544" type="landuse.farmland" color="194,194,130" fill="1" layer="-3.00" shape="3451.684758,1608.760153 3447.767250,1612.739985 3443.365798,1608.148019 3448.048142,1604.270342 3451.684758,1608.760153"/>
    <poly id="1077921545" type="landuse.farmland" color="194,194,130" fill="1" layer="-3.00" shape="3441.070003,1608.308418 3437.832861,1611.011792 3440.936347,1624.737550 3441.791826,1623.984022 3448.013283,1616.886946 3441.070003,1608.308418"/>
    <poly id="1077921546" type="landuse.farmland" color="194,194,130" fill="1" layer="-3.00" shape="3447.645169,1627.635135 3441.858475,1629.153163 3444.124569,1639.741889 3449.991901,1638.324131 3447.645169,1627.635135"/>
    <poly id="1077921547" type="landuse.farmland" color="194,194,130" fill="1" layer="-3.00" shape="3453.295211,1640.956644 3454.159139,1637.146232 3457.725099,1637.911980 3456.780244,1641.722168 3453.295211,1640.956644"/>
    <poly id="1077921548" type="landuse.farmland" color="194,194,130" fill="1" layer="-3.00" shape="3466.572696,1630.911114 3465.462625,1633.275759 3468.013777,1633.883082 3468.866391,1631.506609 3466.572696,1630.911114"/>
    <poly id="1077921549" type="landuse.farmland" color="194,194,130" fill="1" layer="-3.00" shape="3485.430389,1632.830806 3490.529986,1629.710210 3493.058867,1638.354378 3486.514913,1639.692404 3485.430389,1632.830806"/>
    <poly id="1077921550" type="landuse.farmland" color="194,194,130" fill="1" layer="-3.00" shape="3486.820652,1619.617689 3485.988441,1614.624284 3489.899385,1613.023293 3491.326541,1618.362944 3486.820652,1619.617689"/>
    <poly id="1077971007" type="landuse.farmland" color="194,194,130" fill="1" layer="-3.00" shape="3432.677488,1602.360400 3433.681502,1606.431640 3410.840490,1602.978245 3411.563971,1599.400875 3432.677488,1602.360400"/>
    <poly id="1077971008" type="landuse.farmland" color="194,194,130" fill="1" layer="-3.00" shape="3433.767698,1607.187768 3433.969731,1608.622295 3410.304578,1605.233323 3410.595692,1603.711228 3433.767698,1607.187768"/>
    <poly id="1077971009" type="landuse.farmland" color="194,194,130" fill="1" layer="-3.00" shape="3433.782864,1609.688918 3434.182703,1611.424124 3409.834601,1607.588627 3410.125562,1606.122112 3433.782864,1609.688918"/>
    <poly id="1077971010" type="landuse.farmland" color="194,194,130" fill="1" layer="-3.00" shape="3434.595476,1613.804095 3434.173689,1612.024365 3409.677932,1608.377433 3409.350065,1609.888311 3434.595476,1613.804095"/>
    <poly id="1077971011" type="landuse.farmland" color="194,194,130" fill="1" layer="-3.00" shape="3434.505107,1614.559736 3434.853049,1616.439306 3408.828009,1612.454676 3409.149010,1610.765923 3434.505107,1614.559736"/>
    <poly id="1081321375" type="building.service" color="255,230,230" fill="1" layer="-1.00" shape="2785.665238,2014.795176 2782.960168,2011.230889 2785.724313,2009.148385 2788.429411,2012.701557 2785.665238,2014.795176"/>
    <poly id="1081321376" type="building.yes" color="255,230,230" fill="1" layer="-1.00" shape="2780.218701,2040.903457 2786.320016,2037.017865 2787.514649,2038.699547 2789.961050,2037.149775 2791.669150,2039.388618 2791.745041,2044.068671 2790.410762,2045.121163 2791.789180,2046.847797 2791.839911,2049.915957 2790.564660,2050.901910 2791.877400,2052.428281 2791.954085,2056.808202 2790.524237,2057.838210 2791.997901,2059.709604 2792.023737,2061.065829 2790.460918,2062.306689 2792.067817,2063.867187 2792.086856,2065.012189 2792.098303,2066.246100 2790.425436,2067.375509 2791.949856,2069.524938 2787.255553,2072.680587 2786.515191,2071.689301 2784.621288,2072.951520 2777.417709,2062.494511 2781.714072,2059.604586 2775.625068,2050.495568 2780.164724,2047.406196 2778.398772,2044.789258 2781.560049,2042.741150 2780.218701,2040.903457"/>
    <poly id="1081321377" type="building.service" color="255,230,230" fill="1" layer="-1.00" shape="2858.908841,1977.428314 2862.669331,1974.147965 2860.916451,1972.153534 2857.155960,1975.433885 2858.908841,1977.428314"/>
    <poly id="1081321379" type="building.garage" color="255,230,230" fill="1" layer="-1.00" shape="2826.639900,2062.035712 2821.707076,2066.357884 2825.711583,2070.892732 2830.644405,2066.570564 2826.639900,2062.035712"/>
    <poly id="1081321383" type="building.greenhouse" color="255,230,230" fill="1" layer="-1.00" shape="2691.052831,2001.673329 2700.163749,2003.053440 2704.767782,1972.696542 2695.656816,1971.316424 2691.052831,2001.673329"/>
    <poly id="1081321384" type="building.greenhouse" color="255,230,230" fill="1" layer="-1.00" shape="2681.243554,2000.102426 2689.927986,2001.414704 2694.524374,1971.146706 2685.832541,1969.834402 2681.243554,2000.102426"/>
    <poly id="1081321385" type="building.greenhouse" color="255,230,230" fill="1" layer="-1.00" shape="2680.206780,1999.921846 2684.795702,1969.676053 2672.743288,1967.865836 2668.154429,1998.111639 2680.206780,1999.921846"/>
    <poly id="1081321386" type="building.greenhouse" color="255,230,230" fill="1" layer="-1.00" shape="2703.334251,1947.159239 2701.020983,1962.415470 2707.065554,1963.331770 2709.378838,1948.075542 2703.334251,1947.159239"/>
    <poly id="1081321387" type="building.greenhouse" color="255,230,230" fill="1" layer="-1.00" shape="2696.230925,1946.017838 2693.902788,1961.340729 2700.020896,1962.268331 2702.349079,1946.934327 2696.230925,1946.017838"/>
    <poly id="1081321388" type="building.greenhouse" color="255,230,230" fill="1" layer="-1.00" shape="2689.134982,1944.865350 2686.791918,1960.277133 2692.829167,1961.182283 2695.164891,1945.770483 2689.134982,1944.865350"/>
    <poly id="1081321389" type="building.greenhouse" color="255,230,230" fill="1" layer="-1.00" shape="2681.980185,1943.712717 2679.636965,1959.191198 2685.681543,1960.107475 2688.032136,1944.629015 2681.980185,1943.712717"/>
    <poly id="1081321390" type="building.greenhouse" color="255,230,230" fill="1" layer="-1.00" shape="2680.995070,1943.465576 2674.678374,1942.515242 2672.312842,1958.093712 2678.629521,1959.044044 2680.995070,1943.465576"/>
    <poly id="1081321391" type="building.greenhouse" color="255,230,230" fill="1" layer="-1.00" shape="2672.743288,1967.865836 2684.795702,1969.676053 2685.832541,1969.834402 2694.524374,1971.146706 2695.656816,1971.316424 2704.767782,1972.696542 2705.620798,1972.821063 2707.065554,1963.331770 2701.020983,1962.415470 2700.020896,1962.268331 2693.902788,1961.340729 2692.829167,1961.182283 2686.791918,1960.277133 2685.681543,1960.107475 2679.636965,1959.191198 2678.629521,1959.044044 2672.312842,1958.093712 2671.751309,1961.827225 2673.619099,1962.110029 2672.743288,1967.865836"/>
    <poly id="1081321392" type="building.yes" color="255,230,230" fill="1" layer="-1.00" shape="2626.555976,1935.552746 2624.851316,1946.019589 2666.272600,1952.719931 2667.977335,1942.253100 2626.555976,1935.552746"/>
    <poly id="1081321393" type="building.greenhouse" color="255,230,230" fill="1" layer="-1.00" shape="2652.542074,1996.114267 2665.145575,1998.148208 2670.058214,1967.858788 2657.454646,1965.824837 2652.542074,1996.114267"/>
    <poly id="1081321394" type="building.greenhouse" color="255,230,230" fill="1" layer="-1.00" shape="2636.762607,1993.316146 2649.983994,1995.373903 2654.704734,1965.295172 2641.483307,1963.226289 2636.762607,1993.316146"/>
    <poly id="1081321395" type="building.greenhouse" color="255,230,230" fill="1" layer="-1.00" shape="2616.253756,1990.216683 2633.725460,1992.919132 2638.843223,1960.084652 2621.371448,1957.371071 2616.253756,1990.216683"/>
    <poly id="1081321397" type="building.yes" color="255,230,230" fill="1" layer="-1.00" shape="2651.206326,1815.308483 2677.517442,1819.445977 2673.844381,1842.668841 2647.533371,1838.531363 2651.206326,1815.308483"/>
    <poly id="1081321401" type="building.barn" color="255,230,230" fill="1" layer="-1.00" shape="2596.209168,1806.505209 2595.237516,1812.360820 2636.850598,1819.250412 2637.829620,1813.405943 2596.209168,1806.505209"/>
    <poly id="1081321403" type="building.yes" color="255,230,230" fill="1" layer="-1.00" shape="3081.276014,1640.163052 3085.888030,1648.612564 3096.165907,1643.026712 3091.553872,1634.588307 3081.276014,1640.163052"/>
    <poly id="1081321404" type="building.yes" color="255,230,230" fill="1" layer="-1.00" shape="3084.211491,1686.480366 3084.394450,1686.836572 3087.942401,1683.377944 3084.142406,1679.365918 3081.656675,1681.771391 3084.211491,1686.480366"/>
    <poly id="1081321407" type="building.yes" color="255,230,230" fill="1" layer="-1.00" shape="2929.621073,1874.604426 2933.274182,1878.515912 2937.780164,1874.348322 2934.127085,1870.425717 2929.621073,1874.604426"/>
    <poly id="1081321408" type="building.yes" color="255,230,230" fill="1" layer="-1.00" shape="3009.606878,1765.714738 2993.479035,1782.912428 2994.154450,1780.691032 2994.727409,1778.269274 2994.786747,1775.345916 2994.301516,1772.487793 2993.272938,1769.239153 2992.737312,1765.969602 2992.988399,1762.868902 2994.011128,1760.070404 2995.820751,1757.374062 2998.144835,1754.868073 3009.606878,1765.714738"/>
    <poly id="1081321409" type="building.yes" color="255,230,230" fill="1" layer="-1.00" shape="2749.312378,1796.480262 2748.955062,1800.859036 2755.317218,1801.364932 2755.674539,1796.986158 2749.312378,1796.480262"/>
    <poly id="1081321410" type="building.yes" color="255,230,230" fill="1" layer="-1.00" shape="2758.321249,1803.195892 2758.778111,1797.338949 2784.769279,1800.064365 2784.409466,1805.376877 2758.321249,1803.195892"/>
    <poly id="1081321411" type="amenity.parking" color="184,184,179" fill="1" layer="-1.00" shape="2847.411797,1810.868444 2847.828578,1809.057638 2852.732520,1810.160037 2852.323064,1811.981978 2847.411797,1810.868444"/>
    <poly id="1081321412" type="amenity.parking" color="184,184,179" fill="1" layer="-1.00" shape="2875.068336,1815.277224 2891.689277,1819.923516 2898.097830,1822.330539 2895.998604,1823.303156 2885.788841,1820.085657 2874.681387,1816.932483 2875.068336,1815.277224"/>
    <poly id="1081321413" type="amenity.bicycle_rental" color="237,199,199" fill="1" layer="-1.00" shape="2858.352529,1813.098489 2858.746859,1811.432132 2875.068336,1815.277224 2874.681387,1816.932483 2858.352529,1813.098489"/>
    <poly id="1081574780" type="building.yes" color="255,230,230" fill="1" layer="-1.00" shape="3168.689535,2502.448529 3162.469563,2504.065711 3159.033235,2490.950569 3165.253221,2489.333383 3167.131561,2496.497215 3168.689535,2502.448529"/>
    <poly id="1081574781" type="amenity.parking" color="184,184,179" fill="1" layer="-1.00" shape="3209.282265,2444.266286 3246.925974,2475.126953 3243.678701,2479.064293 3206.035001,2448.203647 3209.282265,2444.266286"/>
    <poly id="1081574785" type="building.yes" color="255,230,230" fill="1" layer="-1.00" shape="3368.721393,2558.508536 3370.130595,2548.930375 3363.924907,2548.024029 3362.523071,2557.602212 3368.721393,2558.508536"/>
    <poly id="1081574786" type="building.garages" color="255,230,230" fill="1" layer="-1.00" shape="3031.287283,2528.822517 3036.723299,2539.697519 3043.101852,2536.524378 3037.658489,2525.649350 3031.287283,2528.822517"/>
    <poly id="1081574790" type="building.garage" color="255,230,230" fill="1" layer="-1.00" shape="3120.860582,2435.233580 3124.515071,2441.168321 3129.805285,2437.936753 3126.150799,2432.002009 3120.860582,2435.233580"/>
    <poly id="1081574794" type="amenity.parking" color="184,184,179" fill="1" layer="-1.00" shape="3248.976329,2465.039174 3252.134162,2461.535119 3263.456386,2471.692747 3260.298583,2475.185680 3248.976329,2465.039174"/>
    <poly id="1081574795" type="amenity.parking" color="184,184,179" fill="1" layer="-1.00" shape="3183.016979,2410.935661 3186.035433,2407.286682 3234.835084,2447.415023 3231.809264,2451.063956 3183.016979,2410.935661"/>
    <poly id="1081574796" type="amenity.parking" color="184,184,179" fill="1" layer="-1.00" shape="3158.568361,2391.138318 3161.498117,2387.644710 3175.736322,2399.499708 3172.806533,2403.004425 3158.568361,2391.138318"/>
    <poly id="1081574800" type="building.garage" color="255,230,230" fill="1" layer="-1.00" shape="3107.648912,2397.369946 3110.042600,2401.689443 3116.960069,2397.873112 3114.566384,2393.553613 3107.648912,2397.369946"/>
    <poly id="1081574801" type="building.yes" color="255,230,230" fill="1" layer="-1.00" shape="3044.759964,2450.668492 3049.187645,2448.123721 3043.608543,2438.459974 3039.188212,2441.004768 3044.759964,2450.668492"/>
    <poly id="1081574803" type="building.yes" color="255,230,230" fill="1" layer="-1.00" shape="3073.148759,2343.252818 3064.465515,2347.186720 3060.275371,2337.982459 3068.958596,2334.059667 3073.148759,2343.252818"/>
    <poly id="1081574805" type="building.garage" color="255,230,230" fill="1" layer="-1.00" shape="2953.080919,2355.880495 2957.381027,2365.285059 2962.919379,2362.776541 2958.297525,2352.659685 2955.977602,2353.709501 2956.299386,2354.410673 2953.080919,2355.880495"/>
    <poly id="1081574808" type="landuse.brownfield" color="194,194,130" fill="1" layer="-3.00" shape="3203.139606,2541.826250 3211.527846,2578.643199 3185.266900,2584.563338 3175.206057,2548.742331 3203.139606,2541.826250"/>
    <poly id="1081574809" type="building.yes" color="255,230,230" fill="1" layer="-1.00" shape="2988.743620,2308.788414 2979.611433,2312.810172 2975.443758,2303.394831 2984.575957,2299.373067 2988.743620,2308.788414"/>
    <poly id="1081574810" type="building.yes" color="255,230,230" fill="1" layer="-1.00" shape="3107.161092,2196.835186 3104.288831,2198.083537 3096.166407,2179.486687 3108.634992,2174.073515 3110.806321,2179.048255 3101.210011,2183.213069 3107.161092,2196.835186"/>
    <poly id="1081574811" type="building.commercial" color="255,230,230" fill="1" layer="-1.00" shape="2923.117609,1973.908844 2953.875719,1946.056443 2957.117758,1949.611133 2949.848693,1993.955792 2944.805132,1998.366488 2923.117609,1973.908844"/>
    <poly id="1081574814" type="landuse.brownfield" color="194,194,130" fill="1" layer="-3.00" shape="2587.854654,2436.818251 2670.130200,2400.050550 2636.765772,2331.988475 2603.464087,2355.022722 2590.898649,2366.884065 2583.861220,2380.149365 2581.168654,2391.547397 2581.106530,2415.357796 2581.674127,2426.175185 2587.854654,2436.818251"/>
    <poly id="1081574816" type="landuse.brownfield" color="194,194,130" fill="1" layer="-3.00" shape="2924.576594,2347.678479 2908.889370,2310.720232 2935.356572,2299.552576 2951.043654,2336.510897 2924.576594,2347.678479"/>
    <poly id="1081574817" type="building.yes" color="255,230,230" fill="1" layer="-1.00" shape="2890.158108,2245.563640 2896.025432,2252.137738 2900.700217,2247.992800 2896.219091,2242.956404 2905.487559,2234.744127 2904.101392,2233.195301 2890.158108,2245.563640"/>
    <poly id="1081574818" type="building.yes" color="255,230,230" fill="1" layer="-1.00" shape="2929.920397,2170.158443 2929.627044,2169.824178 2932.812483,2166.986981 2937.227700,2171.923185 2934.034905,2174.760360 2932.076677,2172.565268 2929.920397,2170.158443"/>
    <poly id="1081574819" type="building.yes" color="255,230,230" fill="1" layer="-1.00" shape="2928.470964,2175.768172 2926.989426,2174.119041 2926.314684,2173.361349 2929.920397,2170.158443 2932.076677,2172.565268 2928.470964,2175.768172"/>
    <poly id="1081574820" type="building.yes" color="255,230,230" fill="1" layer="-1.00" shape="2923.929374,2176.834300 2926.989426,2174.119041 2928.470964,2175.768172 2925.403526,2178.494526 2923.929374,2176.834300"/>
    <poly id="1081574821" type="building.garage" color="255,230,230" fill="1" layer="-1.00" shape="2945.832401,2087.386471 2950.636924,2092.557162 2954.914141,2088.600178 2950.116975,2083.429503 2945.832401,2087.386471"/>
    <poly id="1081574822" type="building.garage" color="255,230,230" fill="1" layer="-1.00" shape="2939.704740,2120.373610 2936.162166,2116.451297 2932.689034,2119.576740 2936.231608,2123.499052 2939.704740,2120.373610"/>
    <poly id="1081574823" type="building.garage" color="255,230,230" fill="1" layer="-1.00" shape="2925.840106,2138.967053 2929.793577,2143.279519 2934.151687,2139.311619 2930.205573,2134.999169 2925.840106,2138.967053"/>
    <poly id="1081574824" type="building.garages" color="255,230,230" fill="1" layer="-1.00" shape="2875.558482,2159.075316 2882.512142,2152.768800 2878.118635,2147.943858 2871.164974,2154.250380 2875.558482,2159.075316"/>
    <poly id="1081574825" type="building.garage" color="255,230,230" fill="1" layer="-1.00" shape="2850.866063,2158.231531 2846.124888,2162.431914 2850.056040,2166.855425 2854.804570,2162.655065 2850.866063,2158.231531"/>
    <poly id="110568889" type="building.yes" color="255,230,230" fill="1" layer="-1.00" shape="3262.337426,1035.720108 3264.352981,1035.881234 3264.086970,1038.992994 3280.306805,1040.371216 3281.340517,1028.268691 3263.105119,1026.718224 3262.337426,1035.720108"/>