<?xml version="1.0" encoding="UTF-8"?>

<!-- generated on Thu Oct 29 15:58:23 2020 by Eclipse SUMO sumo Version 1.7.0
-->

<configuration xmlns:xsi="http://www.w3.org/2001/XMLSchema-instance" xsi:noNamespaceSchemaLocation="http://sumo.dlr.de/xsd/sumoConfiguration.xsd">

    <input>
        <net-file value="osm.net.xml"/>
    </input>

</configuration>
