<?xml version='1.0' encoding='UTF-8'?>
<additional>
  <poly id="100971132" type="building.yes" color="255,230,230" fill="1" layer="-1.00" shape="15420.691525,56267.051065 15425.781246,56264.770033 15426.766679,56266.942333 15437.342415,56262.088478 15443.474797,56248.259828 15438.316375,56237.466619 15437.030348,56234.762733 15424.924968,56240.438779 15427.598718,56245.890313 15424.038158,56255.665377 15417.144359,56258.870564 15420.691525,56267.051065"/>
  <poly id="101202313" type="amenity.parking" color="184,184,179" fill="1" layer="-1.00" shape="14535.153932,56593.813405 14527.790908,56579.712371 14507.379922,56590.307859 14514.735745,56604.408917 14535.153932,56593.813405"/>
  <poly id="101207033" type="leisure.playground" color="207,245,201" fill="1" layer="-2.00" shape="14541.712609,56596.590932 14728.730903,56499.121928 14711.832724,56468.811138 14551.203346,56559.367492 14534.251694,56582.979773 14541.712609,56596.590932"/>
  <poly id="101219015" type="amenity.parking" color="184,184,179" fill="1" layer="-1.00" shape="15747.755468,55931.338112 16093.323321,55768.625640 16100.017135,55783.811716 15754.869023,55945.309046 15747.755468,55931.338112"/>
  <poly id="101624752" type="landuse.meadow" color="194,194,130" fill="1" layer="-3.00" shape="14436.211511,56651.572352 14435.904679,56633.852480 14449.609898,56621.225244 14423.315382,56630.261819 14536.611640,56565.485613 14527.726129,56578.745566 14493.838224,56596.407537 14504.636128,56615.954226 14436.211511,56651.572352"/>
  <poly id="101624754" type="natural.scrub" color="140,196,107" fill="1" layer="-4.00" shape="14226.151842,56762.846597 14207.830563,56764.734046 14205.792630,56764.292763 14204.186226,56762.425297 14204.699722,56760.309213 14279.537374,56714.547301 14373.432057,56658.122168 14416.621220,56633.900468 14445.523327,56623.944796 14434.707938,56633.583026 14435.080595,56652.414228 14226.151842,56762.846597"/>
  <poly id="102203931" type="amenity.parking" color="184,184,179" fill="1" layer="-1.00" shape="15624.911221,56113.348605 15667.660049,56094.243108 15653.392053,56062.477182 15610.643023,56081.582789 15624.911221,56113.348605"/>
  <poly id="102345554" type="leisure.park" color="207,245,201" fill="1" layer="-2.00" shape="14364.943645,54687.846795 14381.410456,54687.007110 14395.347060,54682.816708 14409.128455,54676.148143 14418.073906,54669.903065 14413.780937,54649.876776 14410.428178,54637.804260 14404.472909,54627.506858 14396.162174,54618.071155 14384.918962,54611.891616 14376.575017,54609.004644 14365.457907,54609.361597 14356.261146,54611.850683 14348.016302,54616.790080 14340.697667,54622.601219 14334.154216,54631.475407 14331.743583,54641.887830 14331.727949,54652.928057 14333.837483,54662.307711 14340.914425,54672.430290 14347.124391,54679.824030 14353.789286,54684.979836 14364.943645,54687.846795"/>
  <poly id="102360497" type="amenity.parking" color="184,184,179" fill="1" layer="-1.00" shape="14305.139445,54333.976819 14300.866196,54350.395077 14294.552686,54371.252804 14287.086165,54393.975447 14281.539425,54408.557214 14287.442549,54410.449693 14294.102743,54391.490655 14300.822562,54371.741827 14307.723698,54349.979372 14311.889722,54335.796588 14305.139445,54333.976819"/>
  <poly id="102559458" type="amenity.parking" color="184,184,179" fill="1" layer="-1.00" shape="14554.866425,56696.314965 14573.119686,56686.813356 14579.371931,56698.498589 14569.913916,56703.490757 14561.077614,56708.334007 14554.866425,56696.314965"/>
  <poly id="102664327" type="landuse.grass" color="194,194,130" fill="1" layer="-3.00" shape="14894.340091,56391.036264 14901.157467,56407.976687 14910.051957,56405.123705 14920.925747,56401.567550 14969.250735,56376.925161 14964.808299,56368.184196 14959.636497,56357.669470 14894.340091,56391.036264"/>
  <poly id="102664328" type="amenity.parking" color="184,184,179" fill="1" layer="-1.00" shape="14881.240038,56378.676060 14952.386784,56343.089012 14955.653508,56349.392250 14959.636497,56357.669470 14894.340091,56391.036264 14887.803452,56393.472482 14881.240038,56378.676060"/>
  <poly id="102783415" type="amenity.place_of_worship" color="237,199,199" fill="1" layer="-1.00" shape="14325.603907,56726.404433 14325.017869,56726.475313 14324.910402,56725.619994 14326.379116,56725.442767 14326.202523,56724.032041 14327.360117,56723.890384 14327.551983,56725.412181 14328.926645,56725.246743 14328.652439,56723.347521 14328.295656,56723.072112 14330.012935,56721.192066 14330.442443,56721.511430 14331.679094,56720.268531 14330.913496,56719.529076 14331.675888,56718.800981 14332.653450,56719.816876 14337.993280,56719.222969 14337.801100,56717.656702 14338.893607,56717.526628 14339.108933,56719.292854 14342.342927,56718.891827 14341.912197,56715.348257 14343.228777,56715.161000 14343.211684,56714.794229 14342.235548,56713.978445 14342.817156,56713.284991 14343.968894,56714.355239 14356.023076,56712.979786 14357.129319,56711.726703 14357.749463,56712.378252 14356.649196,56713.453405 14356.793179,56714.352936 14359.868826,56714.086462 14360.105508,56716.819801 14360.561368,56716.772086 14360.856372,56719.560600 14364.126572,56719.159328 14364.889171,56717.441735 14365.826490,56717.890906 14365.191380,56719.207344 14367.289174,56720.937947 14368.543556,56720.150767 14368.850520,56720.548831 14369.062720,56720.858626 14367.663915,56721.702422 14368.429040,56727.467211 14369.807972,56727.902123 14369.687407,56728.258756 14369.510180,56728.793679 14368.195942,56728.291599 14366.268587,56730.162008 14367.176816,56731.612004 14366.340114,56732.073792 14365.548373,56730.711911 14361.995311,56731.048487 14362.288653,56733.603535 14361.847117,56733.628912 14362.192884,56736.428182 14359.248377,56736.804903 14359.312235,56737.638297 14360.522129,56738.741488 14359.838200,56739.302252 14358.685679,56738.120827 14346.784164,56739.573014 14345.670452,56740.792799 14344.875579,56740.009079 14346.084214,56738.899798 14345.916725,56738.767575 14344.281631,56738.968216 14343.843822,56735.446932 14340.609758,56735.836841 14340.778948,56737.225384 14339.860068,56737.331986 14339.690958,56735.954560 14334.235527,56736.582643 14333.539651,56737.499270 14332.884727,56737.048095 14333.444214,56736.299208 14332.025040,56735.297574 14331.687568,56735.700224 14329.258112,56734.172120 14329.724970,56733.635133 14329.502084,56731.824490 14328.069576,56732.001457 14328.261916,56733.589959 14327.314151,56733.707886 14327.114649,56732.130554 14325.689382,56732.307471 14325.581677,56731.418799 14326.211160,56731.347610 14325.603907,56726.404433"/>
  <poly id="102783415#1" type="building.church" color="255,230,230" fill="1" layer="-1.00" shape="14325.603907,56726.404433 14325.017869,56726.475313 14324.910402,56725.619994 14326.379116,56725.442767 14326.202523,56724.032041 14327.360117,56723.890384 14327.551983,56725.412181 14328.926645,56725.246743 14328.652439,56723.347521 14328.295656,56723.072112 14330.012935,56721.192066 14330.442443,56721.511430 14331.679094,56720.268531 14330.913496,56719.529076 14331.675888,56718.800981 14332.653450,56719.816876 14337.993280,56719.222969 14337.801100,56717.656702 14338.893607,56717.526628 14339.108933,56719.292854 14342.342927,56718.891827 14341.912197,56715.348257 14343.228777,56715.161000 14343.211684,56714.794229 14342.235548,56713.978445 14342.817156,56713.284991 14343.968894,56714.355239 14356.023076,56712.979786 14357.129319,56711.726703 14357.749463,56712.378252 14356.649196,56713.453405 14356.793179,56714.352936 14359.868826,56714.086462 14360.105508,56716.819801 14360.561368,56716.772086 14360.856372,56719.560600 14364.126572,56719.159328 14364.889171,56717.441735 14365.826490,56717.890906 14365.191380,56719.207344 14367.289174,56720.937947 14368.543556,56720.150767 14368.850520,56720.548831 14369.062720,56720.858626 14367.663915,56721.702422 14368.429040,56727.467211 14369.807972,56727.902123 14369.687407,56728.258756 14369.510180,56728.793679 14368.195942,56728.291599 14366.268587,56730.162008 14367.176816,56731.612004 14366.340114,56732.073792 14365.548373,56730.711911 14361.995311,56731.048487 14362.288653,56733.603535 14361.847117,56733.628912 14362.192884,56736.428182 14359.248377,56736.804903 14359.312235,56737.638297 14360.522129,56738.741488 14359.838200,56739.302252 14358.685679,56738.120827 14346.784164,56739.573014 14345.670452,56740.792799 14344.875579,56740.009079 14346.084214,56738.899798 14345.916725,56738.767575 14344.281631,56738.968216 14343.843822,56735.446932 14340.609758,56735.836841 14340.778948,56737.225384 14339.860068,56737.331986 14339.690958,56735.954560 14334.235527,56736.582643 14333.539651,56737.499270 14332.884727,56737.048095 14333.444214,56736.299208 14332.025040,56735.297574 14331.687568,56735.700224 14329.258112,56734.172120 14329.724970,56733.635133 14329.502084,56731.824490 14328.069576,56732.001457 14328.261916,56733.589959 14327.314151,56733.707886 14327.114649,56732.130554 14325.689382,56732.307471 14325.581677,56731.418799 14326.211160,56731.347610 14325.603907,56726.404433"/>
  <poly id="102902690" type="amenity.parking" color="184,184,179" fill="1" layer="-1.00" shape="16467.363392,55796.927332 16489.058985,55771.732821 16456.949471,55745.354688 16454.444150,55747.595124 16476.381000,55765.803257 16458.861032,55786.200146 16428.758092,55762.043381 16427.543598,55763.452414 16454.545247,55786.307004 16467.363392,55796.927332"/>
  <poly id="103150760" type="building.retail" color="255,230,230" fill="1" layer="-1.00" shape="14559.184709,55559.517287 14557.674991,55557.015311 14529.254442,55509.987386 14572.744211,55483.863788 14574.979965,55482.513824 14604.902795,55532.055141 14598.144957,55536.116475 14559.184709,55559.517287"/>
  <poly id="103150760#1" type="shop.department_store" color="237,199,255" fill="1" layer="-1.00" shape="14559.184709,55559.517287 14557.674991,55557.015311 14529.254442,55509.987386 14572.744211,55483.863788 14574.979965,55482.513824 14604.902795,55532.055141 14598.144957,55536.116475 14559.184709,55559.517287"/>
  <poly id="103182120" type="building.apartments" color="0,100,100" fill="1" layer="1.00" shape="14161.375798,55972.254251 14156.804385,55975.077540 14151.432624,55978.395746 14155.704081,55985.280584 14165.647248,55979.139097 14161.375798,55972.254251"/>
  <poly id="103185244" type="amenity.place_of_worship" color="237,199,199" fill="1" layer="-1.00" shape="14149.927400,56166.945060 14143.721797,56179.208090 14144.041860,56179.405924 14145.997171,56180.414794 14145.678294,56181.395456 14145.626006,56182.185206 14145.746563,56182.840305 14146.426711,56183.769350 14147.154451,56184.264455 14146.325627,56186.849752 14146.172585,56188.740902 14146.219599,56191.264345 14146.557238,56192.907391 14147.134168,56194.593197 14147.730913,56196.012030 14148.637617,56197.228523 14149.929237,56198.597916 14151.480760,56199.854271 14153.088227,56200.832276 14155.064060,56201.674233 14156.217699,56201.977288 14157.746708,56202.110891 14159.035234,56202.034971 14159.520730,56203.087707 14160.185437,56203.883450 14160.731020,56204.224207 14161.282732,56204.409268 14161.790279,56204.494584 14162.238701,56204.413552 14162.510514,56206.979861 14166.504373,56206.462122 14179.196819,56205.070613 14177.372608,56196.055854 14176.544603,56195.717113 14176.204577,56194.752279 14176.563718,56194.338348 14176.827129,56193.702741 14176.808277,56193.091388 14176.535888,56192.470728 14176.076490,56192.029292 14175.473927,56191.822356 14174.446016,56191.885291 14174.694913,56187.191728 14173.817601,56184.007140 14172.949028,56182.045466 14173.533716,56179.750985 14171.073562,56179.034780 14170.169165,56178.140688 14168.689501,56176.805989 14167.262991,56175.815567 14165.787061,56175.003386 14163.746839,56174.273066 14162.383029,56173.949275 14159.969341,56173.655226 14160.349263,56172.095994 14159.547040,56171.312353 14158.594969,56170.841087 14158.040463,56171.278652 14156.413568,56170.623205 14156.719792,56169.898347 14149.927400,56166.945060"/>
  <poly id="103185244#1" type="building.mosque" color="255,230,230" fill="1" layer="-1.00" shape="14149.927400,56166.945060 14143.721797,56179.208090 14144.041860,56179.405924 14145.997171,56180.414794 14145.678294,56181.395456 14145.626006,56182.185206 14145.746563,56182.840305 14146.426711,56183.769350 14147.154451,56184.264455 14146.325627,56186.849752 14146.172585,56188.740902 14146.219599,56191.264345 14146.557238,56192.907391 14147.134168,56194.593197 14147.730913,56196.012030 14148.637617,56197.228523 14149.929237,56198.597916 14151.480760,56199.854271 14153.088227,56200.832276 14155.064060,56201.674233 14156.217699,56201.977288 14157.746708,56202.110891 14159.035234,56202.034971 14159.520730,56203.087707 14160.185437,56203.883450 14160.731020,56204.224207 14161.282732,56204.409268 14161.790279,56204.494584 14162.238701,56204.413552 14162.510514,56206.979861 14166.504373,56206.462122 14179.196819,56205.070613 14177.372608,56196.055854 14176.544603,56195.717113 14176.204577,56194.752279 14176.563718,56194.338348 14176.827129,56193.702741 14176.808277,56193.091388 14176.535888,56192.470728 14176.076490,56192.029292 14175.473927,56191.822356 14174.446016,56191.885291 14174.694913,56187.191728 14173.817601,56184.007140 14172.949028,56182.045466 14173.533716,56179.750985 14171.073562,56179.034780 14170.169165,56178.140688 14168.689501,56176.805989 14167.262991,56175.815567 14165.787061,56175.003386 14163.746839,56174.273066 14162.383029,56173.949275 14159.969341,56173.655226 14160.349263,56172.095994 14159.547040,56171.312353 14158.594969,56170.841087 14158.040463,56171.278652 14156.413568,56170.623205 14156.719792,56169.898347 14149.927400,56166.945060"/>
  <poly id="103187766" type="building.roof" color="255,230,230" fill="1" layer="-1.00" shape="13845.636421,56195.623560 13822.601125,56198.835938 13825.074614,56219.475313 13848.243697,56216.751171 13845.636421,56195.623560"/>
  <poly id="103187767" type="building.commercial" color="255,230,230" fill="1" layer="-1.00" shape="13825.074614,56219.475313 13814.814405,56220.705571 13811.718421,56200.115162 13822.601125,56198.835938 13825.074614,56219.475313"/>
  <poly id="103189796" type="building.apartments" color="0,100,100" fill="1" layer="1.00" shape="14098.459351,56178.197828 14101.217157,56191.152758 14083.181765,56196.818665 14081.673968,56190.547810 14088.456324,56189.065012 14086.693075,56180.494565 14088.103519,56180.250985 14098.459351,56178.197828"/>
  <poly id="103270398" type="building.apartments" color="0,100,100" fill="1" layer="1.00" shape="13842.525397,56055.359313 13840.745838,56042.575345 13854.007733,56040.767614 13854.109179,56043.790973 13858.459580,56043.492801 13862.045462,56048.659066 13858.859003,56050.683255 13859.249637,56053.637823 13842.525397,56055.359313"/>
  <poly id="103270400" type="building.apartments" color="0,100,100" fill="1" layer="1.00" shape="13844.508936,56070.320935 13842.525397,56055.359313 13859.249637,56053.637823 13859.562305,56058.838784 13854.582681,56059.252669 13855.032947,56064.452639 13859.251138,56063.899706 13869.101851,56058.058523 13871.768444,56062.286387 13861.400252,56068.676074 13856.158973,56068.958426 13844.508936,56070.320935"/>
  <poly id="103270401" type="building.apartments" color="0,100,100" fill="1" layer="1.00" shape="13846.515249,56087.439283 13848.658790,56105.512789 13851.659714,56106.892031 13860.233280,56101.715994 13866.709046,56097.878118 13861.572932,56089.632219 13856.640884,56092.625130 13855.835249,56086.349276 13846.515249,56087.439283"/>
  <poly id="103270403" type="building.apartments" color="0,100,100" fill="1" layer="1.00" shape="13846.515249,56087.439283 13855.835249,56086.349276 13858.165249,56086.076777 13856.158973,56068.958426 13844.508936,56070.320935 13846.515249,56087.439283"/>
  <poly id="103959429" type="building.yes" color="255,230,230" fill="1" layer="-1.00" shape="15418.513170,55405.592903 15417.467900,55395.838592 15391.597126,55398.107762 15389.474309,55401.157650 15397.270346,55414.089434 15403.877517,55410.130203 15401.942845,55406.874918 15418.513170,55405.592903"/>
  <poly id="103959436" type="building.yes" color="255,230,230" fill="1" layer="-1.00" shape="15436.267539,55394.329971 15438.797181,55418.694098 15444.305128,55418.122365 15443.048294,55406.045865 15446.544107,55405.677048 15446.947309,55409.521064 15453.056021,55408.889598 15452.660066,55405.045531 15451.380061,55392.757949 15436.267539,55394.329971"/>
  <poly id="103959437" type="building.yes" color="255,230,230" fill="1" layer="-1.00" shape="15473.644654,55396.895657 15477.942870,55402.591705 15473.060466,55419.280078 15460.120220,55415.511544 15463.249911,55407.229303 15463.576337,55405.203585 15473.644654,55396.895657"/>
  <poly id="103959440" type="building.yes" color="255,230,230" fill="1" layer="-1.00" shape="15461.852059,55457.558699 15451.430216,55454.517690 15450.290827,55454.192026 15451.557363,55449.858399 15444.452276,55447.795098 15447.395809,55437.735264 15453.346953,55439.461888 15454.655951,55434.983436 15467.378417,55438.686753 15461.852059,55457.558699"/>
  <poly id="103959445" type="building.apartments" color="0,100,100" fill="1" layer="1.00" shape="15434.118039,55475.238876 15434.832130,55474.811457 15435.945987,55476.682687 15441.052980,55476.791915 15444.152138,55466.197343 15442.402992,55465.675773 15433.625176,55451.094142 15423.296090,55457.280426 15434.118039,55475.238876"/>
  <poly id="103959447" type="building.apartments" color="0,100,100" fill="1" layer="1.00" shape="15403.432475,55424.319759 15413.372039,55418.358491 15414.324221,55417.796008 15422.208086,55430.871752 15425.345781,55428.993359 15424.547111,55427.664731 15433.361455,55422.378357 15439.611009,55425.359229 15424.838565,55434.200057 15413.492480,55441.004879 15403.432475,55424.319759"/>
  <poly id="103959452" type="building.apartments" color="0,100,100" fill="1" layer="1.00" shape="15423.296090,55457.280426 15433.625176,55451.094142 15432.189105,55448.713717 15433.530768,55447.915068 15430.980985,55443.685648 15429.639321,55444.484298 15427.609139,55441.029542 15428.626117,55440.411024 15424.838565,55434.200057 15413.492480,55441.004879 15423.296090,55457.280426"/>
  <poly id="103959457" type="building.yes" color="255,230,230" fill="1" layer="-1.00" shape="15397.270346,55414.089434 15403.877517,55410.130203 15407.209923,55408.128155 15413.372039,55418.358491 15403.432475,55424.319759 15397.270346,55414.089434"/>
  <poly id="103959463" type="building.apartments" color="0,100,100" fill="1" layer="1.00" shape="15467.378417,55438.686753 15454.655951,55434.983436 15455.604106,55431.741568 15448.803725,55429.753980 15452.249671,55417.978517 15458.839568,55419.900856 15460.120220,55415.511544 15473.060466,55419.280078 15467.378417,55438.686753"/>
  <poly id="104157752" type="landuse.residential" color="235,235,227" fill="1" layer="-3.00" shape="16264.661427,54299.034180 16179.186772,54351.788840 16246.425573,54461.623196 16333.298375,54415.475277 16347.453965,54413.367453 16356.583808,54422.266906 16387.975175,54473.097563 16326.526253,54510.134212 16408.877613,54640.292138 16471.702079,54608.661563 16482.915883,54626.997421 16497.437942,54663.344294 16500.598996,54664.823977 16500.105459,54665.761195 16529.216875,54678.418017 16461.795352,54820.279391 16435.596309,54807.592216 16426.758905,54825.885034 16461.481285,54842.517288 16441.107508,54888.148746 16422.624815,54925.195659 16394.672342,54969.366290 16343.540351,55008.045505 16286.631731,55043.940290 16261.893349,55052.212444 16206.991614,55086.960479 16107.049288,55162.995307 16079.863463,55173.397318 16162.838784,55344.861530 16126.478475,55361.907335 16048.567884,55208.931652 16034.843106,55189.935556 15472.120767,55510.787113 15452.633112,55492.332569 15424.180341,55480.410721 15415.816388,55478.545168 15407.041220,55476.915948 15396.905744,55476.530247 15390.404120,55473.751292 15363.085304,55472.906487 15349.056637,55474.071000 15263.048925,55471.187742 15252.423635,55471.194839 15245.673365,55468.084244 15239.427514,55460.434036 15238.187195,55420.573748 15228.916518,55354.975675 15224.358069,55332.727028 15213.487437,55300.616199 15201.649773,55262.786384 15172.119302,55195.150260 15183.981559,55188.585945 15251.422569,55149.838017 15329.468472,55102.678967 15340.220852,55094.777422 15347.463612,55087.367167 15354.685744,55079.067632 15360.038567,55070.692110 15364.374909,55061.967861 15367.052659,55055.356388 15369.792165,55044.063843 15371.004292,55035.005461 15371.175643,55026.276705 15370.211141,55015.654650 15368.664468,55007.782753 15366.281592,54999.449695 15364.269095,54994.393860 15360.171263,54986.317276 15355.205313,54978.402359 15346.982989,54967.819471 15337.895066,54958.810221 15326.605014,54951.884184 15317.587936,54947.877541 15307.539147,54944.467319 15296.666394,54942.363628 15284.739058,54941.734843 15270.615261,54942.955790 15260.122129,54945.452356 15248.238783,54949.070393 15235.933932,54955.615398 15219.044598,54965.383146 15174.479997,54982.770278 15131.176224,55008.498556 15081.026369,55040.256393 15043.721906,54990.397183 15008.624361,54938.221383 14966.101161,54869.454226 15017.992263,54835.882079 15086.650106,54814.300866 15144.316178,54791.184976 15213.765071,54769.666573 15239.799932,54760.357813 15259.891859,54754.781592 15288.495400,54747.122917 15314.842124,54739.924758 15330.213807,54733.681102 15351.587900,54721.803593 15367.286028,54714.568286 15391.888524,54702.323928 15401.006854,54697.880380 15465.030537,54666.685681 15501.151583,54648.169606 15518.089121,54637.824289 15530.236931,54630.413821 15541.216125,54623.711863 15567.407530,54608.555582 15577.034068,54598.972357 15588.529133,54583.005725 15608.674503,54558.730111 15644.954399,54511.507476 15658.119117,54493.884072 15659.289171,54492.319526 15661.830963,54489.022282 15729.342425,54404.918913 15750.957655,54377.176100 15771.287616,54351.076511 15797.359004,54322.336110 15838.215256,54288.102552 15879.719463,54262.748081 15912.173186,54247.650790 15931.430575,54239.370004 15949.486911,54233.432231 15985.506075,54225.893481 16014.053734,54221.185280 16051.621945,54218.761776 16094.741226,54220.859172 16096.398118,54223.749691 16101.583172,54237.322787 16119.133103,54244.274650 16177.901811,54259.430112 16262.457865,54282.772486 16264.716767,54290.072788 16264.661427,54299.034180"/>
  <poly id="104174237" type="landuse.residential" color="235,235,227" fill="1" layer="-3.00" shape="15081.844481,54807.641401 15061.198653,54780.513210 14950.693405,54847.670870 14900.683507,54768.227831 14967.997760,54725.385957 14911.935129,54628.952512 14885.157552,54584.012558 14828.876277,54530.096436 14849.484955,54515.509564 14902.637696,54475.512474 15157.983784,54297.787719 15176.894135,54311.653557 15192.517374,54290.387477 15225.629397,54311.926144 15241.469690,54269.734787 15271.672494,54219.705710 15302.702040,54230.308155 15314.549068,54293.320150 15239.551497,54385.719066 15262.425536,54403.982591 15274.183355,54413.417906 15284.023847,54397.106342 15302.831186,54365.923542 15325.196734,54330.702581 15329.495499,54312.294880 15352.932086,54294.632915 15359.489417,54291.652375 15371.738762,54274.757285 15374.463996,54269.713125 15351.122034,54244.581505 15395.341794,54191.053982 15425.077809,54160.218516 15485.847291,54105.843595 15521.880024,54067.660759 15567.144097,54032.772198 15609.540750,54001.183523 15620.646099,53995.770556 15645.851169,53987.370051 15665.240607,53984.524079 15701.818350,53980.070415 15733.100620,53976.742852 15764.806841,53973.957341 15808.845715,53972.499595 15810.406393,53982.472785 15810.624965,53985.828894 15803.187425,53995.785827 15814.844898,54004.333553 15826.664114,54003.696818 15849.793236,54002.104487 15847.565187,53978.216246 15847.547560,53972.457298 15847.621274,53970.522281 15907.600232,53969.256592 15917.393069,53969.990265 15925.617512,53972.335628 15944.430814,53984.848386 15953.674965,53995.436315 16094.741226,54220.859172 16051.621945,54218.761776 16014.053734,54221.185280 15985.506075,54225.893481 15949.486911,54233.432231 15931.430575,54239.370004 15912.173186,54247.650790 15879.719463,54262.748081 15838.215256,54288.102552 15797.359004,54322.336110 15771.287616,54351.076511 15750.957655,54377.176100 15729.342425,54404.918913 15661.830963,54489.022282 15659.289171,54492.319526 15658.119117,54493.884072 15644.954399,54511.507476 15607.458063,54557.760104 15588.529133,54583.005725 15576.377206,54597.209132 15566.559527,54607.438513 15541.216125,54623.711863 15518.089121,54637.824289 15501.151583,54648.169606 15465.030537,54666.685681 15401.006854,54697.880380 15391.888524,54702.323928 15367.286028,54714.568286 15351.587900,54721.803593 15330.213807,54733.681102 15314.842124,54739.924758 15288.495400,54747.122917 15259.891859,54754.781592 15239.799932,54760.357813 15213.765071,54769.666573 15144.316178,54791.184976 15081.844481,54807.641401"/>
  <poly id="104360498" type="amenity.parking" color="184,184,179" fill="1" layer="-1.00" shape="13832.225153,55929.511339 13892.534740,55896.679165 13859.111172,55854.449158 13831.359990,55921.012323 13832.225153,55929.511339"/>
  <poly id="104382587" type="building.apartments" color="0,100,100" fill="1" layer="1.00" shape="15362.916839,55621.109685 15347.936492,55620.757641 15347.213795,55635.616209 15346.916319,55641.810959 15346.516527,55649.963176 15360.881043,55650.297245 15361.313291,55642.645112 15356.749933,55642.576665 15357.098039,55636.370446 15362.096020,55636.447001 15362.194566,55634.989869 15362.916839,55621.109685"/>
  <poly id="104382588" type="building.apartments" color="0,100,100" fill="1" layer="1.00" shape="15377.174950,55635.353069 15377.984862,55621.572342 15362.916839,55621.109685 15362.194566,55634.989869 15368.033121,55635.127314 15372.307022,55635.231129 15377.174950,55635.353069"/>
  <poly id="104382589" type="building.yes" color="255,230,230" fill="1" layer="-1.00" shape="15368.033121,55635.127314 15367.905830,55637.663084 15372.179807,55637.778016 15372.307022,55635.231129 15368.033121,55635.127314"/>
  <poly id="104382590" type="building.apartments" color="0,100,100" fill="1" layer="1.00" shape="15394.683411,55622.168288 15415.134725,55622.916211 15418.831959,55627.604640 15412.951714,55646.568037 15400.923186,55642.604336 15403.008117,55636.185979 15393.792868,55635.816155 15394.683411,55622.168288"/>
  <poly id="104382591" type="building.apartments" color="0,100,100" fill="1" layer="1.00" shape="15317.968780,55620.087079 15315.469627,55620.026587 15303.864674,55619.717961 15301.742200,55619.665980 15301.199889,55631.276866 15301.124166,55632.889492 15305.977845,55633.044822 15305.370438,55646.757450 15316.590643,55646.946449 15316.641103,55645.867659 15317.069974,55637.737475 15311.775058,55637.663021 15311.938219,55634.037443 15317.255020,55634.133980 15317.968780,55620.087079"/>
  <poly id="104382592" type="building.apartments" color="0,100,100" fill="1" layer="1.00" shape="15377.984862,55621.572342 15394.683411,55622.168288 15393.792868,55635.816155 15388.932338,55635.716385 15388.865593,55638.629745 15382.599976,55638.528589 15382.832676,55635.525136 15377.174950,55635.353069 15377.984862,55621.572342"/>
  <poly id="104382593" type="building.public" color="255,230,230" fill="1" layer="-1.00" shape="15287.237910,55619.032851 15249.300320,55616.905951 15247.212929,55635.454054 15261.126989,55639.748976 15261.832190,55629.704582 15286.681168,55632.734011 15287.237910,55619.032851"/>
  <poly id="104382594" type="building.apartments" color="0,100,100" fill="1" layer="1.00" shape="15347.936492,55620.757641 15332.782712,55620.462430 15332.032858,55635.576901 15337.755074,55635.648412 15337.544669,55640.819710 15334.393871,55640.785962 15333.920058,55649.750302 15346.516527,55649.963176 15346.916319,55641.810959 15344.235810,55641.707239 15344.540679,55635.534673 15347.213795,55635.616209 15347.936492,55620.757641"/>
  <poly id="104382595" type="building.apartments" color="0,100,100" fill="1" layer="1.00" shape="15301.742200,55619.665980 15287.237910,55619.032851 15286.681168,55632.734011 15286.242664,55643.643749 15296.339776,55643.762677 15296.810182,55631.185029 15301.199889,55631.276866 15301.742200,55619.665980"/>
  <poly id="104382596" type="building.apartments" color="0,100,100" fill="1" layer="1.00" shape="15332.782712,55620.462430 15317.968780,55620.087079 15317.255020,55634.133980 15320.195794,55634.169175 15320.003658,55637.794954 15317.069974,55637.737475 15316.641103,55645.867659 15327.694504,55646.024484 15328.179242,55635.503558 15332.032858,55635.576901 15332.782712,55620.462430"/>
  <poly id="104382597" type="building.yes" color="255,230,230" fill="1" layer="-1.00" shape="15261.126989,55639.748976 15281.585321,55644.643340 15278.315085,55649.313340 15294.113282,55657.942378 15290.439513,55666.039496 15259.685407,55651.177110 15261.126989,55639.748976"/>
  <poly id="104382599" type="building.public" color="255,230,230" fill="1" layer="-1.00" shape="15247.212929,55635.454054 15243.770740,55656.023919 15288.154667,55682.243069 15295.384256,55668.884724 15290.439513,55666.039496 15259.685407,55651.177110 15261.126989,55639.748976 15247.212929,55635.454054"/>
  <poly id="104382600" type="building.apartments" color="0,100,100" fill="1" layer="1.00" shape="15412.951714,55646.568037 15406.424935,55666.291934 15395.681333,55662.752954 15393.300319,55661.968943 15399.834298,55642.244980 15400.923186,55642.604336 15412.951714,55646.568037"/>
  <poly id="104524322" type="building.apartments" color="0,100,100" fill="1" layer="1.00" shape="15267.231359,55797.047626 15252.366330,55803.843884 15246.865875,55791.885847 15242.762418,55782.942185 15247.953294,55780.571347 15252.725820,55790.955695 15257.562986,55788.754092 15253.864042,55780.697048 15258.701141,55778.484328 15267.231359,55797.047626"/>
  <poly id="104524325" type="building.yes" color="255,230,230" fill="1" layer="-1.00" shape="15505.067402,54987.883852 15496.566753,54974.712188 15488.747420,54979.446800 15496.916582,54992.865335 15502.059494,54989.716828 15505.067402,54987.883852"/>